80
i
Au  5.005822022452373 3.392452267599698 6.399988099396137
Au  2.637100724201135 4.288716272348715 7.213565567682323
Au  7.948926430795945 6.969037031345345 1.184202988834959
Au  5.563096082471425 6.088924035782589 1.868303149128017
Au  6.95973521981211 9.046550343725574 9.567072389745968
Au  6.23161984073327 4.557591353047736 8.579339383580361
Au  0.4649608822129259 5.842360365084313 6.466965912264862
Au  8.69576465164462 9.104923844895984 7.490644058314177
Au  7.86827095008256 12.97945238214442 4.103387981632725
Au  9.190043798127972 8.050207212995129 3.272540098858273
Au  5.732921742622721 13.18246025400473 2.392059605661999
Au  6.103507478746213 6.633989260839665 10.30610740711321
Au  -0.3690186299266776 8.399412473489754 2.076416329005028
Au  1.23837801326409 13.3031203508343 1.866824933023986
Au  0.349987003304709 8.059616236531342 8.326781753538238
Au  8.103875786376443 12.22847607744448 1.558095283183395
Au  0.4481783480162358 10.68741523668594 8.496492899754944
Au  -0.2934204479594733 11.16396007499161 2.281228373412794
Au  9.007807729632603 11.41756479839079 6.066255616367918
Au  7.61285391516272 5.866738830999775 3.62305306713403
Au  1.361056137624126 11.25652546859041 0.1589506404492529
Au  3.907833350987986 5.48004451314592 9.421050388604604
Au  2.940483828876559 3.611069869032085 4.692570813367508
Au  7.183498396764582 4.919610835925566 6.128547913567982
Au  1.285150543002634 8.518380055545277 -0.03600577575678376
Au  0.573361837311456 12.95184204221637 6.988484678223442
Au  -0.8034221007193727 9.498489231496361 6.39429743984989
Au  7.539241183070509 13.5680951880323 6.69054396762989
Au  3.124701729522601 5.281098288078045 2.652624412332568
Au  -0.6464823178309076 7.348121404231589 4.59582871707692
Au  5.145954884678243 12.87975032227401 7.530677753435729
Au  10.31099423806389 9.193903548454326 5.379622759741458
Au  3.319682841713594 13.97494135519149 3.344533507629988
Au  2.993433248260955 13.07738235694104 5.85789450873463
Au  5.875771541616985 11.08538388618076 0.6824174516124137
Au  4.659237994978599 8.83654110875427 10.96199833056712
Au  4.814757188741366 10.58754699946695 8.985730243162418
Au  3.609076836597532 9.83713416813759 -0.0775523417307834
Au  1.032447969032699 6.260716506374381 1.366885790982151
Au  -0.5953237549649977 11.78754736819632 4.932366833894056
Cu  7.234517850868934 11.28451049137604 8.059934009961097
Cu  0.5539603290419337 9.612276136074243 4.162925155305054
Cu  6.107454524770964 9.260185837326569 7.070001536875925
Cu  0.8587355541670987 5.256014420610661 3.933494252720763
Cu  6.635346692932654 10.82324306551186 3.195366658589887
Cu  4.065553669064089 10.7377246820645 6.454790824519168
Cu  2.520815323198158 7.778111885031331 9.95766997079317
Cu  1.465618054424933 8.192457122206587 5.950072087533554
Cu  5.324935348712975 9.458790957099311 4.730758102329373
Cu  2.822860136464258 6.104390094403144 5.268270357282661
Cu  1.888130539639286 11.71531507176817 3.785328348297718
Cu  3.471970976868292 11.86547574264548 1.680570345126325
Cu  3.363618015524406 7.604108832681624 1.353456397599741
Cu  2.641189916819949 9.343283358634682 7.948729732429902
Cu  5.780137651415585 8.42316366332126 0.6387313769468588
Cu  3.947865079740979 8.126243459497539 6.207238469666094
Cu  2.017248179458027 9.72570572699385 2.126478415996943
Cu  4.263724323445294 7.430315449441319 3.715216385488977
Cu  1.78530274339182 7.531282311052818 3.457474179967551
Cu  7.950880670159474 9.58997934155391 1.455252920613897
Cu  2.507448373293365 6.795854718200446 7.730407297451032
Cu  4.666620523076138 7.898950850850416 8.562567891809199
Cu  4.492096406038979 9.644989395490649 2.392129681726288
Cu  9.13609212127653 10.70212751535704 3.487608168152559
Cu  2.701928480901858 11.96682910207766 8.241981876190543
Cu  4.773397029891703 5.912864672684463 6.924800831366811
Cu  6.389782930309518 11.45468241290038 5.682593205020788
Cu  6.218076384528247 7.247335753063281 5.399630454414622
Cu  8.691934340141096 7.104217492273009 5.742975757292299
Cu  7.72737378612894 9.331300991522149 5.056422117647461
Cu  4.366455184014859 11.65779238643201 4.056129031872442
Cu  7.01118708676199 7.000726023892575 7.806742027527264
Cu  5.125038055826719 5.156872235856692 4.419659359288399
Cu  2.513633085243987 10.26305117501301 10.18349699467706
Cu  -1.840672497587244 9.652881400404731 3.923443991628337
Cu  2.956134025953611 9.545611180146699 4.42140806034206
Cu  5.4560135395653 13.71400520580032 5.007193300797014
Cu  6.572884239777478 8.228316745390472 3.028146563493932
Cu  1.5880836358643 10.76453524527525 6.141589401561223
Cu  0.9120317496078618 13.86254983909506 4.473998955275032
